** CalculiX Input File - Generated by SimForge
** Beam: 2000mm span, 120x200mm, 6mm wall
** Load: 100000N
** Ribs: 0
** Mesh: 525 nodes, 320 elements

*HEADING
Beam Analysis with 0 Internal Ribs
Static Linear Analysis

** ====================================================
** MATERIAL PROPERTIES
** ====================================================
*MATERIAL, NAME=STEEL
*ELASTIC
200000, 0.29
*DENSITY
7850
*EXPANSION
1.2e-5

** ====================================================
** NODES
** ====================================================
*NODE, NSET=ALL
1, 0.000000, 0.000000, 0.000000
2, 0.000000, 0.000000, 50.000000
3, 0.000000, 0.000000, 100.000000
4, 0.000000, 0.000000, 150.000000
5, 0.000000, 0.000000, 200.000000
6, 0.000000, 30.000000, 0.000000
7, 0.000000, 30.000000, 50.000000
8, 0.000000, 30.000000, 100.000000
9, 0.000000, 30.000000, 150.000000
10, 0.000000, 30.000000, 200.000000
11, 0.000000, 60.000000, 0.000000
12, 0.000000, 60.000000, 50.000000
13, 0.000000, 60.000000, 100.000000
14, 0.000000, 60.000000, 150.000000
15, 0.000000, 60.000000, 200.000000
16, 0.000000, 90.000000, 0.000000
17, 0.000000, 90.000000, 50.000000
18, 0.000000, 90.000000, 100.000000
19, 0.000000, 90.000000, 150.000000
20, 0.000000, 90.000000, 200.000000
** ... 505 like lines cut

** ====================================================
** ELEMENTS
** ====================================================
*ELEMENT, TYPE=C3D8R, ELSET=BEAM
1, 1, 26, 31, 6, 2, 27, 32, 7
2, 2, 27, 32, 7, 3, 28, 33, 8
3, 3, 28, 33, 8, 4, 29, 34, 9
4, 4, 29, 34, 9, 5, 30, 35, 10
5, 6, 31, 36, 11, 7, 32, 37, 12
6, 7, 32, 37, 12, 8, 33, 38, 13
7, 8, 33, 38, 13, 9, 34, 39, 14
8, 9, 34, 39, 14, 10, 35, 40, 15
9, 11, 36, 41, 16, 12, 37, 42, 17
10, 12, 37, 42, 17, 13, 38, 43, 18
11, 13, 38, 43, 18, 14, 39, 44, 19
12, 14, 39, 44, 19, 15, 40, 45, 20
13, 16, 41, 46, 21, 17, 42, 47, 22
14, 17, 42, 47, 22, 18, 43, 48, 23
15, 18, 43, 48, 23, 19, 44, 49, 24
16, 19, 44, 49, 24, 20, 45, 50, 25
17, 26, 51, 56, 31, 27, 52, 57, 32
18, 27, 52, 57, 32, 28, 53, 58, 33
19, 28, 53, 58, 33, 29, 54, 59, 34
20, 29, 54, 59, 34, 30, 55, 60, 35
** ... 300 like lines cut

** ====================================================
** MATERIAL ASSIGNMENT
** ====================================================
*SOLID SECTION, ELSET=BEAM, MATERIAL=STEEL

** ====================================================
** BOUNDARY CONDITIONS
** ====================================================
*BOUNDARY, OP=NEW
1, 1, 3, 0.0, 1, 1, 3, 0.0, 1, 1, 3, 0.0, 1, 1, 3, 0.0, 1, 1, 3, 0.0, 1, 1, 3, 0.0, 1, 1, 3, 0.0, 1, 1, 3, 0.0, 1, 1, 3, 0.0, 1, 1, 3, 0.0

** ====================================================
** LOADS
** ====================================================
*CLOAD, OP=NEW
501, 3, -4000.00, 502, 3, -4000.00, 503, 3, -4000.00, 504, 3, -4000.00, 505, 3, -4000.00

** ====================================================
** OUTPUT
** ====================================================
*STEP
Static Analysis
*STATIC
1.0, 1.0, 1e-5, 1.0
*OUTPUT, FIELD
*NODE FILE, FREQUENCY=1
U, RF
*EL FILE, FREQUENCY=1
S, E, MISES
*END STEP
