*HEADING
Frictionless Incline Simulation
*PREPRINT,ECHO=NO,HISTORY=NO
*NODE
1,0,0,0
2,0,10,0
*ELEMENT(TYPE=CPS3)
1,1,2
*MATERIAL,NAME=BLOCK
*DENSITY
8000,
*ELASTIC
2e11,0.3
*SECTION,ELSET=BLOCK,SECTION=BLOCK,MATERIAL=BLOCK
*STEP
*DYNAMIC
*NODE FILE
U
*EL FILE
S
*END STEP
*STEP,NAME=INCLINE
*DYNAMIC,DELTIM=0.01
0.1,10
*NODE FILE
U
*EL FILE
S
*BC,OP=NEW
1,1,1,0
1,2,2,0
1,3,3,0
*LOAD
*FILM,OP=NEW
2,1,30
*CLOAD
2,3,-49065
*OUTPUT,FIELD
*NODE OUTPUT
U
*ELEMENT OUTPUT
S
*END OUTPUT
*END STEP