** CalculiX Input File - Generated by SimForge
** Beam: 2000mm span, 120x200mm, 6mm wall
** Load: 100000N
** Ribs: 0
** Mesh: 99 nodes, 40 elements

*HEADING
Beam Analysis with 0 Internal Ribs
Static Linear Analysis

** ====================================================
** MATERIAL PROPERTIES
** ====================================================
*MATERIAL, NAME=STEEL
*ELASTIC
200000, 0.29
*DENSITY
7850
*EXPANSION
1.2e-5

** ====================================================
** NODES
** ====================================================
*NODE, NSET=ALL
1, 0.000000, 0.000000, 0.000000
2, 0.000000, 0.000000, 100.000000
3, 0.000000, 0.000000, 200.000000
4, 0.000000, 60.000000, 0.000000
5, 0.000000, 60.000000, 100.000000
6, 0.000000, 60.000000, 200.000000
7, 0.000000, 120.000000, 0.000000
8, 0.000000, 120.000000, 100.000000
9, 0.000000, 120.000000, 200.000000
10, 200.000000, 0.000000, 0.000000
11, 200.000000, 0.000000, 100.000000
12, 200.000000, 0.000000, 200.000000
13, 200.000000, 60.000000, 0.000000
14, 200.000000, 60.000000, 100.000000
15, 200.000000, 60.000000, 200.000000
16, 200.000000, 120.000000, 0.000000
17, 200.000000, 120.000000, 100.000000
18, 200.000000, 120.000000, 200.000000
19, 400.000000, 0.000000, 0.000000
20, 400.000000, 0.000000, 100.000000
** ... 79 like lines cut

** ====================================================
** ELEMENTS
** ====================================================
*ELEMENT, TYPE=C3D8R, ELSET=BEAM
1, 1, 10, 13, 4, 2, 11, 14, 5
2, 2, 11, 14, 5, 3, 12, 15, 6
3, 4, 13, 16, 7, 5, 14, 17, 8
4, 5, 14, 17, 8, 6, 15, 18, 9
5, 10, 19, 22, 13, 11, 20, 23, 14
6, 11, 20, 23, 14, 12, 21, 24, 15
7, 13, 22, 25, 16, 14, 23, 26, 17
8, 14, 23, 26, 17, 15, 24, 27, 18
9, 19, 28, 31, 22, 20, 29, 32, 23
10, 20, 29, 32, 23, 21, 30, 33, 24
11, 22, 31, 34, 25, 23, 32, 35, 26
12, 23, 32, 35, 26, 24, 33, 36, 27
13, 28, 37, 40, 31, 29, 38, 41, 32
14, 29, 38, 41, 32, 30, 39, 42, 33
15, 31, 40, 43, 34, 32, 41, 44, 35
16, 32, 41, 44, 35, 33, 42, 45, 36
17, 37, 46, 49, 40, 38, 47, 50, 41
18, 38, 47, 50, 41, 39, 48, 51, 42
19, 40, 49, 52, 43, 41, 50, 53, 44
20, 41, 50, 53, 44, 42, 51, 54, 45
** ... 20 like lines cut

** ====================================================
** MATERIAL ASSIGNMENT
** ====================================================
*SOLID SECTION, ELSET=BEAM, MATERIAL=STEEL

** ====================================================
** BOUNDARY CONDITIONS
** ====================================================
*BOUNDARY
1, 1, 6, 0.0
1, 1, 6, 0.0
1, 1, 6, 0.0
1, 1, 6, 0.0
1, 1, 6, 0.0

** ====================================================
** LOADS
** ====================================================
*CLOAD
91, 3, -11111.11
92, 3, -11111.11
93, 3, -11111.11

** ====================================================
** OUTPUT
** ====================================================
*STEP
Static Analysis
*STATIC
1.0, 1.0, 1e-5, 1.0
*OUTPUT, FIELD
*NODE FILE, FREQUENCY=1
U, RF
*EL FILE, FREQUENCY=1
S, E, MISES
*END STEP
